<?xml version="1.0" encoding="UTF-8"?>

<!-- generated on 2022-12-14 20:23:28 by Eclipse SUMO netconvert Version 1.14.1
<configuration xmlns:xsi="http://www.w3.org/2001/XMLSchema-instance" xsi:noNamespaceSchemaLocation="http://sumo.dlr.de/xsd/netconvertConfiguration.xsd">

    <input>
        <type-files value="C:\Program%20Files%20(x86)\Eclipse\Sumo\data\typemap\osmNetconvert.typ.xml"/>
        <osm-files value="osm_bbox.osm.xml.gz"/>
    </input>

    <output>
        <output-file value="osm.net.xml"/>
        <output.street-names value="true"/>
        <output.original-names value="true"/>
        <ptstop-output value="osm_stops.add.xml"/>
        <ptline-output value="osm_ptlines.xml"/>
    </output>

    <projection>
        <proj.utm value="true"/>
    </projection>

    <processing>
        <geometry.remove value="true"/>
        <roundabouts.guess value="true"/>
    </processing>

    <tls_building>
        <tls.discard-simple value="true"/>
        <tls.join value="true"/>
        <tls.guess-signals value="true"/>
        <tls.default-type value="actuated"/>
    </tls_building>

    <ramp_guessing>
        <ramps.guess value="true"/>
    </ramp_guessing>

    <junctions>
        <junctions.join value="true"/>
        <junctions.corner-detail value="5"/>
    </junctions>

    <railway>
        <railway.topology.repair value="true"/>
    </railway>

    <report>
        <verbose value="true"/>
    </report>

</configuration>
-->

<additional xmlns:xsi="http://www.w3.org/2001/XMLSchema-instance" xsi:noNamespaceSchemaLocation="http://sumo.dlr.de/xsd/additional_file.xsd">
    <busStop id="-1673526976" name="Georgenstraße/Am Kupfergraben" lane="-167272512#2_0" startPos="0.00" endPos="5.35" friendlyPos="true">
        <access lane="1088748335#4_0" pos="79.39" length="12.98" friendlyPos="1"/>
        <access lane="4610476#2_0" pos="5.33" length="6.20" friendlyPos="1"/>
        <access lane="4610476#3_0" pos="0.00" length="6.17" friendlyPos="1"/>
        <access lane="463829474#0_0" pos="0.20" length="4.05" friendlyPos="1"/>
        <access lane="463829474#1_0" pos="0.00" length="2.34" friendlyPos="1"/>
    </busStop>
    <busStop id="-1823298700" name="S+U Friedrichstraße" lane="167272512#9_0" startPos="278.73" endPos="303.73" friendlyPos="true">
        <access lane="-516398559_0" pos="108.90" length="122.70" friendlyPos="1"/>
        <access lane="-589906053#1_0" pos="0.00" length="143.87" friendlyPos="1"/>
        <access lane="371919780_0" pos="3.68" length="117.90" friendlyPos="1"/>
        <access lane="38711947_0" pos="0.00" length="46.02" friendlyPos="1"/>
        <access lane="83517336#0_0" pos="0.00" length="142.08" friendlyPos="1"/>
    </busStop>
    <busStop id="-2175753204" name="Am Kupfergraben" lane="-207364192#0_0" startPos="0.00" endPos="12.50" friendlyPos="true">
        <access lane="-330840136#1_0" pos="1.08" length="12.15" friendlyPos="1"/>
        <access lane="-410310755#7_0" pos="0.00" length="16.37" friendlyPos="1"/>
        <access lane="1119838636#1_0" pos="0.00" length="11.87" friendlyPos="1"/>
        <access lane="330840136#1_0" pos="0.00" length="15.16" friendlyPos="1"/>
        <access lane="340498976#3_0" pos="36.12" length="10.51" friendlyPos="1"/>
    </busStop>
    <busStop id="-247600965" name="S+U Friedrichstraße" lane="-22820560#2_0" startPos="57.38" endPos="82.38" friendlyPos="true">
        <access lane="-589906053#1_0" pos="0.00" length="157.53" friendlyPos="1"/>
        <access lane="371919780_0" pos="3.68" length="165.20" friendlyPos="1"/>
        <access lane="38711947_0" pos="0.00" length="93.35" friendlyPos="1"/>
        <access lane="589906053#1_0" pos="28.12" length="159.18" friendlyPos="1"/>
        <access lane="83517336#0_0" pos="0.00" length="95.12" friendlyPos="1"/>
    </busStop>
    <busStop id="-247603398" name="Am Kupfergraben" lane="-207364191#0_0" startPos="3.40" endPos="28.40" friendlyPos="true">
        <access lane="-132460632#0_0" pos="25.90" length="35.12" friendlyPos="1"/>
        <access lane="1119837993#0_0" pos="43.80" length="0.88" friendlyPos="1"/>
        <access lane="131765141#1_0" pos="0.00" length="30.48" friendlyPos="1"/>
        <access lane="463829467_0" pos="2.62" length="21.25" friendlyPos="1"/>
        <access lane="463829476#0_0" pos="0.00" length="32.99" friendlyPos="1"/>
    </busStop>
    <busStop id="-27411240" name="S Hackescher Markt" lane="-32590638_0" startPos="236.04" endPos="436.04" friendlyPos="true">
        <access lane="1018271757_0" pos="3.59" length="7.40" friendlyPos="1"/>
        <access lane="377110615_0" pos="0.00" length="14.83" friendlyPos="1"/>
        <access lane="377110617_0" pos="2.91" length="15.07" friendlyPos="1"/>
        <access lane="377110621#0_0" pos="0.00" length="9.95" friendlyPos="1"/>
        <access lane="377110621#1_0" pos="0.00" length="12.94" friendlyPos="1"/>
    </busStop>
    <busStop id="-3867910426" name="S Hackescher Markt" lane="-387892378_0" startPos="6.31" endPos="21.31" friendlyPos="true" lines="N42"/>
    <busStop id="-3922258748" name="Universitätsstraße" lane="-144014237#2_0" startPos="1.81" endPos="26.81" friendlyPos="true">
        <access lane="-15977422#1_0" pos="0.34" length="48.14" friendlyPos="1"/>
        <access lane="15977422#1_0" pos="90.79" length="43.24" friendlyPos="1"/>
        <access lane="463829469#1_0" pos="39.76" length="48.83" friendlyPos="1"/>
        <access lane="463829477#0_0" pos="0.00" length="10.06" friendlyPos="1"/>
        <access lane="83517336#4_0" pos="79.10" length="2.93" friendlyPos="1"/>
    </busStop>
    <busStop id="-6744165042" name="U Rotes Rathaus" lane="-534588621#0_0" startPos="36.36" endPos="51.36" friendlyPos="true" lines="N60 200 N65 N2 N8 N40 N42 300">
        <access lane="1000864517_0" pos="93.60" length="31.01" friendlyPos="1"/>
        <access lane="260138647#0_0" pos="9.54" length="38.01" friendlyPos="1"/>
        <access lane="375901776#5_0" pos="40.49" length="23.96" friendlyPos="1"/>
        <access lane="687804451#0_0" pos="56.90" length="22.07" friendlyPos="1"/>
        <access lane="687804451#1_0" pos="0.00" length="30.44" friendlyPos="1"/>
    </busStop>
    <busStop id="1633759760" name="S Hackescher Markt" lane="803941122_0" startPos="35.74" endPos="60.74" friendlyPos="true" lines="M4 M5 M6">
        <access lane="170852455_0" pos="0.00" length="10.81" friendlyPos="1"/>
        <access lane="175506753_0" pos="0.20" length="5.97" friendlyPos="1"/>
        <access lane="46517262#3_0" pos="26.54" length="11.28" friendlyPos="1"/>
        <access lane="46517262#4_0" pos="1.83" length="4.84" friendlyPos="1"/>
        <access lane="46517262#5_0" pos="0.00" length="9.37" friendlyPos="1"/>
    </busStop>
    <busStop id="1633759766" name="S Hackescher Markt" lane="421641064_0" startPos="48.15" endPos="60.65" friendlyPos="true" lines="M4 M5 M6">
        <access lane="268940759_0" pos="0.10" length="3.93" friendlyPos="1"/>
        <access lane="304514893#7_0" pos="5.14" length="3.34" friendlyPos="1"/>
        <access lane="47986664#1_0" pos="0.20" length="11.59" friendlyPos="1"/>
        <access lane="47986664#2_0" pos="0.00" length="11.28" friendlyPos="1"/>
        <access lane="47986664#3_0" pos="0.73" length="7.23" friendlyPos="1"/>
    </busStop>
    <busStop id="1673526976" name="Georgenstraße/Am Kupfergraben" lane="167272512#2_0" startPos="68.07" endPos="80.57" friendlyPos="true" lines="12 M1">
        <access lane="1088748335#4_0" pos="79.39" length="12.98" friendlyPos="1"/>
        <access lane="4610476#2_0" pos="5.33" length="6.20" friendlyPos="1"/>
        <access lane="4610476#3_0" pos="0.00" length="6.17" friendlyPos="1"/>
        <access lane="463829474#0_0" pos="0.20" length="4.05" friendlyPos="1"/>
        <access lane="463829474#1_0" pos="0.00" length="2.34" friendlyPos="1"/>
    </busStop>
    <busStop id="1745157971" name="S Hackescher Markt" lane="32590649_0" startPos="122.04" endPos="322.04" friendlyPos="true" lines="S5 S7 S3 S9">
        <access lane="275008387#1_0" pos="26.06" length="8.48" friendlyPos="1"/>
        <access lane="377110615_0" pos="4.85" length="9.96" friendlyPos="1"/>
        <access lane="377110617_0" pos="0.00" length="13.04" friendlyPos="1"/>
        <access lane="377110622#2_0" pos="0.20" length="9.88" friendlyPos="1"/>
        <access lane="377110622#3_0" pos="0.07" length="6.43" friendlyPos="1"/>
    </busStop>
    <busStop id="1823298700" name="S+U Friedrichstraße" lane="195411594#0_0" startPos="7.32" endPos="32.32" friendlyPos="true">
        <access lane="-516398559_0" pos="108.90" length="122.70" friendlyPos="1"/>
        <access lane="-589906053#1_0" pos="0.00" length="143.87" friendlyPos="1"/>
        <access lane="371919780_0" pos="3.68" length="117.90" friendlyPos="1"/>
        <access lane="38711947_0" pos="0.00" length="46.02" friendlyPos="1"/>
        <access lane="83517336#0_0" pos="0.00" length="142.08" friendlyPos="1"/>
    </busStop>
    <busStop id="1827996414" name="Spandauer Straße/Marienkirche" lane="72157174#1_0" startPos="28.44" endPos="35.94" friendlyPos="true" lines="100 200 N5 N8 N40 N2"/>
    <busStop id="1827996417" name="Spandauer Straße/Marienkirche" lane="24914992_0" startPos="208.55" endPos="216.09" friendlyPos="true" lines="N60 100 200 N65 N2 N5 N8 N40"/>
    <busStop id="2175753204" name="Am Kupfergraben" lane="144014228#2_0" startPos="30.36" endPos="50.08" friendlyPos="true" lines="12">
        <access lane="-330840136#1_0" pos="1.08" length="12.15" friendlyPos="1"/>
        <access lane="-410310755#7_0" pos="0.00" length="16.37" friendlyPos="1"/>
        <access lane="1119838636#1_0" pos="0.00" length="11.87" friendlyPos="1"/>
        <access lane="330840136#1_0" pos="0.00" length="15.16" friendlyPos="1"/>
        <access lane="340498976#3_0" pos="36.12" length="10.51" friendlyPos="1"/>
    </busStop>
    <busStop id="247600965" name="S+U Friedrichstraße" lane="-93584121#0_0" startPos="34.69" endPos="59.69" friendlyPos="true">
        <access lane="-589906053#1_0" pos="0.00" length="157.53" friendlyPos="1"/>
        <access lane="371919780_0" pos="3.68" length="165.20" friendlyPos="1"/>
        <access lane="38711947_0" pos="0.00" length="93.35" friendlyPos="1"/>
        <access lane="589906053#1_0" pos="28.12" length="159.18" friendlyPos="1"/>
        <access lane="83517336#0_0" pos="0.00" length="95.12" friendlyPos="1"/>
    </busStop>
    <busStop id="247603398" name="Am Kupfergraben" lane="144014230#3_0" startPos="35.92" endPos="60.92" friendlyPos="true" lines="M1">
        <access lane="-132460632#0_0" pos="25.90" length="35.12" friendlyPos="1"/>
        <access lane="1119837993#0_0" pos="43.80" length="0.88" friendlyPos="1"/>
        <access lane="131765141#1_0" pos="0.00" length="30.48" friendlyPos="1"/>
        <access lane="463829467_0" pos="2.62" length="21.25" friendlyPos="1"/>
        <access lane="463829476#0_0" pos="0.00" length="32.99" friendlyPos="1"/>
    </busStop>
    <busStop id="271296293" name="Staatsoper" lane="169195795#4_0" startPos="34.39" endPos="49.39" friendlyPos="true" lines="100 N5 300"/>
    <busStop id="27411240" name="S Hackescher Markt" lane="4471817#1_0" startPos="6.63" endPos="193.81" friendlyPos="true" lines="S5 S7 S3 S9">
        <access lane="1018271757_0" pos="3.59" length="7.40" friendlyPos="1"/>
        <access lane="377110615_0" pos="0.00" length="14.83" friendlyPos="1"/>
        <access lane="377110617_0" pos="2.91" length="15.07" friendlyPos="1"/>
        <access lane="377110621#0_0" pos="0.00" length="9.95" friendlyPos="1"/>
        <access lane="377110621#1_0" pos="0.00" length="12.94" friendlyPos="1"/>
    </busStop>
    <busStop id="2915590925" name="Spandauer Straße/Marienkirche" lane="202157002#1_0" startPos="54.53" endPos="69.53" friendlyPos="true" lines="N42"/>
    <busStop id="30731481" name="Spandauer Straße/Marienkirche" lane="144014234#1_0" startPos="38.25" endPos="63.25" friendlyPos="true" lines="M4 M5 M6">
        <access lane="1097921378_0" pos="0.61" length="30.56" friendlyPos="1"/>
        <access lane="1097921384#3_0" pos="32.71" length="23.34" friendlyPos="1"/>
        <access lane="202157002#1_0" pos="44.86" length="11.89" friendlyPos="1"/>
        <access lane="4773465#1_0" pos="27.44" length="19.04" friendlyPos="1"/>
        <access lane="561326926#1_0" pos="1.88" length="29.60" friendlyPos="1"/>
    </busStop>
    <busStop id="3867910420" name="U Museumsinsel" lane="61584187#1_0" startPos="29.87" endPos="44.87" friendlyPos="true" lines="100 N5 300"/>
    <busStop id="3867910421" name="U Museumsinsel" lane="831694400_0" startPos="23.29" endPos="38.29" friendlyPos="true" lines="100 N5 300"/>
    <busStop id="3867910427" name="S Hackescher Markt" lane="370359204#2_0" startPos="8.03" endPos="23.03" friendlyPos="true" lines="N42"/>
    <busStop id="3867910438" name="Spandauer Straße/Marienkirche" lane="4773465#1_0" startPos="19.57" endPos="34.57" friendlyPos="true" lines="N42"/>
    <busStop id="3867922463" name="U Museumsinsel" lane="4773024#0_0" startPos="0.00" endPos="7.50" friendlyPos="true"/>
    <busStop id="3867922470" name="Spandauer Straße/Marienkirche" lane="1097921378_0" startPos="0.00" endPos="3.11" friendlyPos="true"/>
    <busStop id="3869306771" name="U Unter den Linden" lane="461526152#0_0" startPos="4.41" endPos="19.41" friendlyPos="true" lines="100 N5 300"/>
    <busStop id="3870475228" name="Staatsoper" lane="340498982#1_0" startPos="13.62" endPos="28.62" friendlyPos="true" lines="100 N5 300"/>
    <busStop id="3922258748" name="Universitätsstraße" lane="144014237#2_0" startPos="68.15" endPos="93.15" friendlyPos="true" lines="12 M1">
        <access lane="-15977422#1_0" pos="0.34" length="48.14" friendlyPos="1"/>
        <access lane="15977422#1_0" pos="90.79" length="43.24" friendlyPos="1"/>
        <access lane="463829469#1_0" pos="39.76" length="48.83" friendlyPos="1"/>
        <access lane="463829477#0_0" pos="0.00" length="10.06" friendlyPos="1"/>
        <access lane="83517336#4_0" pos="79.10" length="2.93" friendlyPos="1"/>
    </busStop>
    <busStop id="4673135647" name="Spandauer Straße/Marienkirche" lane="150394035#1_0" startPos="51.85" endPos="75.65" friendlyPos="true" lines="M4 M5 M6">
        <access lane="100113532_0" pos="8.11" length="6.85" friendlyPos="1"/>
        <access lane="171826985#2_0" pos="61.80" length="16.87" friendlyPos="1"/>
        <access lane="171826987#1_0" pos="0.20" length="17.35" friendlyPos="1"/>
        <access lane="171826987#2_0" pos="0.20" length="17.35" friendlyPos="1"/>
        <access lane="72157174#1_0" pos="9.10" length="20.54" friendlyPos="1"/>
    </busStop>
    <busStop id="6682293818" name="U Rotes Rathaus" lane="534588621#0_0" startPos="13.89" endPos="28.89" friendlyPos="true" lines="200 N8 N40 N2 N42 300">
        <access lane="260138647#0_0" pos="0.00" length="31.41" friendlyPos="1"/>
        <access lane="260138647#1_0" pos="0.00" length="39.34" friendlyPos="1"/>
        <access lane="375901776#5_0" pos="50.16" length="24.08" friendlyPos="1"/>
        <access lane="375901776#6_0" pos="0.00" length="31.57" friendlyPos="1"/>
        <access lane="687804451#0_0" pos="47.23" length="21.66" friendlyPos="1"/>
    </busStop>
    <busStop id="7974928190" name="U Museumsinsel" lane="942849697_0" startPos="13.37" endPos="213.37" friendlyPos="true" lines="U5">
        <access lane="-4611694#1_0" pos="5.49" length="0.06" friendlyPos="1"/>
        <access lane="251884680#1_0" pos="34.01" length="23.20" friendlyPos="1"/>
        <access lane="251884680#2_0" pos="0.00" length="19.92" friendlyPos="1"/>
        <access lane="339201217_0" pos="0.00" length="20.53" friendlyPos="1"/>
        <access lane="4611694#1_0" pos="23.60" length="4.74" friendlyPos="1"/>
    </busStop>
    <busStop id="7974955393" name="U Museumsinsel" lane="942849695_0" startPos="1.87" endPos="201.87" friendlyPos="true" lines="U5">
        <access lane="1100900061_0" pos="20.77" length="31.98" friendlyPos="1"/>
        <access lane="868590781#0_0" pos="22.96" length="24.44" friendlyPos="1"/>
        <access lane="868590781#1_0" pos="4.44" length="19.92" friendlyPos="1"/>
        <access lane="868590783_0" pos="0.00" length="32.22" friendlyPos="1"/>
        <access lane="964267490_0" pos="7.59" length="11.66" friendlyPos="1"/>
    </busStop>
    <busStop id="8087330616" name="U Unter den Linden" lane="942849696_0" startPos="224.00" endPos="424.00" friendlyPos="true" lines="U5">
        <access lane="461526152#0_0" pos="68.56" length="4.51" friendlyPos="1"/>
        <access lane="881527239#7_0" pos="10.70" length="15.00" friendlyPos="1"/>
        <access lane="882389487_0" pos="14.90" length="14.33" friendlyPos="1"/>
        <access lane="882389489_0" pos="14.70" length="9.80" friendlyPos="1"/>
        <access lane="915958620#1_0" pos="44.07" length="16.36" friendlyPos="1"/>
    </busStop>
    <busStop id="8090274121" name="U Unter den Linden" lane="71326270_0" startPos="382.94" endPos="582.94" friendlyPos="true" lines="U5">
        <access lane="171423002#0_0" pos="0.00" length="2.53" friendlyPos="1"/>
        <access lane="171423002#1_0" pos="0.00" length="29.10" friendlyPos="1"/>
        <access lane="881611350_0" pos="17.97" length="30.49" friendlyPos="1"/>
        <access lane="915958599#0_0" pos="9.88" length="26.41" friendlyPos="1"/>
        <access lane="915958599#1_0" pos="0.00" length="27.23" friendlyPos="1"/>
    </busStop>
    <busStop id="8196661136" name="U Rotes Rathaus" lane="248099628_0" startPos="364.55" endPos="504.66" friendlyPos="true" lines="U5">
        <access lane="1000864517_0" pos="0.00" length="123.41" friendlyPos="1"/>
        <access lane="564139999#2_0" pos="58.31" length="151.44" friendlyPos="1"/>
        <access lane="606078068#0_0" pos="0.00" length="130.65" friendlyPos="1"/>
        <access lane="606078068#1_0" pos="0.00" length="146.24" friendlyPos="1"/>
        <access lane="687804451#0_0" pos="0.00" length="128.02" friendlyPos="1"/>
    </busStop>
    <busStop id="8196661137" name="U Rotes Rathaus" lane="942849698_0" startPos="0.00" endPos="199.31" friendlyPos="true" lines="U5">
        <access lane="1055731559#0_0" pos="2.47" length="81.79" friendlyPos="1"/>
        <access lane="606078068#0_0" pos="0.00" length="41.65" friendlyPos="1"/>
        <access lane="606078068#1_0" pos="0.00" length="56.93" friendlyPos="1"/>
        <access lane="606078068#2_0" pos="0.00" length="73.90" friendlyPos="1"/>
        <access lane="687804451#0_0" pos="0.00" length="39.76" friendlyPos="1"/>
    </busStop>
</additional>
